./Prepped_v2/1AE1_orig.pdb
 OpenBabel10212411353D

 10 11  0  0  1  0  0  0  0  0999 V2000
    4.9320   35.0050  146.4370 C   0  0  1  0  0  0  0  0  0  0  0  0
    6.4260   34.6450  146.6970 C   0  0  0  0  0  0  0  0  0  0  0  0
    6.5530   33.4120  147.6970 C   0  0  0  0  0  0  0  0  0  0  0  0
    7.6090   32.7760  147.7840 O   0  0  0  0  0  0  0  0  0  0  0  0
    5.2970   33.0150  148.5940 C   0  0  0  0  0  0  0  0  0  0  0  0
    3.9900   33.6320  148.0570 C   0  0  2  0  0  0  0  0  0  0  0  0
    3.6390   32.9320  146.7250 C   0  0  0  0  0  0  0  0  0  0  0  0
    4.2360   33.8600  145.6400 C   0  0  0  0  0  0  0  0  0  0  0  0
    4.2460   35.0470  147.7430 N   0  0  0  0  0  0  0  0  0  0  0  0
    2.9600   35.7820  147.6140 C   0  0  0  0  0  0  0  0  0  0  0  0
  1  8  1  6  0  0  0
  1  2  1  0  0  0  0
  1  9  1  0  0  0  0
  2  3  1  0  0  0  0
  3  4  2  0  0  0  0
  3  5  1  0  0  0  0
  6  7  1  6  0  0  0
  6  5  1  0  0  0  0
  8  7  1  0  0  0  0
  9  6  1  0  0  0  0
 10  9  1  0  0  0  0
M  END
$$$$
