./Prepped_v2/1AFS_A_A:Y55F_orig.pdb
 OpenBabel10212411263D

 21 24  0  0  1  0  0  0  0  0999 V2000
  -22.5180   11.3170   -0.9480 C   0  0  0  0  0  0  0  0  0  0  0  0
  -22.4760   12.8480   -1.0230 C   0  0  0  0  0  0  0  0  0  0  0  0
  -22.9400   13.3450   -2.3430 C   0  0  0  0  0  0  0  0  0  0  0  0
  -22.3660   14.2240   -2.9420 O   0  0  0  0  0  0  0  0  0  0  0  0
  -24.1190   12.7040   -2.8790 C   0  0  0  0  0  0  0  0  0  0  0  0
  -24.5710   11.5020   -2.4350 C   0  0  0  0  0  0  0  0  0  0  0  0
  -25.7750   10.8850   -3.0880 C   0  0  0  0  0  0  0  0  0  0  0  0
  -25.5600    9.4260   -3.4790 C   0  0  0  0  0  0  0  0  0  0  0  0
  -25.0500    8.6540   -2.2570 C   0  0  2  0  0  0  0  0  0  0  0  0
  -23.7630    9.2550   -1.6810 C   0  0  1  0  0  0  0  0  0  0  0  0
  -23.9120   10.7280   -1.2680 C   0  0  1  0  0  0  0  0  0  0  0  0
  -23.1260    8.4900   -0.5000 C   0  0  0  0  0  0  0  0  0  0  0  0
  -22.9310    7.0130   -0.8740 C   0  0  0  0  0  0  0  0  0  0  0  0
  -24.2400    6.3860   -1.3520 C   0  0  1  0  0  0  0  0  0  0  0  0
  -24.7720    7.1850   -2.5490 C   0  0  1  0  0  0  0  0  0  0  0  0
  -25.8940    6.3220   -3.1300 C   0  0  0  0  0  0  0  0  0  0  0  0
  -25.3510    4.8910   -2.9630 C   0  0  0  0  0  0  0  0  0  0  0  0
  -24.0650    5.0280   -2.1060 C   0  0  2  0  0  0  0  0  0  0  0  0
  -23.7920    3.8940   -1.2710 O   0  0  0  0  0  0  0  0  0  0  0  0
  -25.2810    6.2850   -0.2210 C   0  0  0  0  0  0  0  0  0  0  0  0
  -24.8490   10.8560   -0.0500 C   0  0  0  0  0  0  0  0  0  0  0  0
  2  1  1  0  0  0  0
  3  2  1  0  0  0  0
  4  3  2  0  0  0  0
  5  6  2  0  0  0  0
  5  3  1  0  0  0  0
  6 11  1  0  0  0  0
  7  6  1  0  0  0  0
  8  7  1  0  0  0  0
  9  8  1  6  0  0  0
  9 10  1  0  0  0  0
 10 11  1  0  0  0  0
 10 12  1  1  0  0  0
 11  1  1  0  0  0  0
 11 21  1  1  0  0  0
 13 12  1  0  0  0  0
 14 13  1  0  0  0  0
 14 20  1  1  0  0  0
 15 16  1  1  0  0  0
 15  9  1  0  0  0  0
 15 14  1  0  0  0  0
 16 17  1  0  0  0  0
 17 18  1  0  0  0  0
 18 14  1  0  0  0  0
 18 19  1  1  0  0  0
M  END
$$$$
