./Prepped_v2/1AN9_A_A:I230A+A:R283G_orig.pdb
 OpenBabel10212411423D

 10 10  0  0  0  0  0  0  0  0999 V2000
   33.7670   73.9890   64.7800 N   0  0  0  0  0  0  0  0  0  0  0  0
   34.5330   73.0890   65.4820 C   0  0  0  0  0  0  0  0  0  0  0  0
   36.2600   74.9230   66.0690 C   0  0  0  0  0  0  0  0  0  0  0  0
   37.4320   75.1580   66.4320 O   0  0  0  0  0  0  0  0  0  0  0  0
   35.5170   75.8240   65.6180 O   0  0  0  0  0  0  0  0  0  0  0  0
   35.7260   73.4890   66.1560 C   0  0  0  0  0  0  0  0  0  0  0  0
   34.0980   71.7260   65.6110 C   0  0  0  0  0  0  0  0  0  0  0  0
   34.8270   70.8140   66.3770 C   0  0  0  0  0  0  0  0  0  0  0  0
   35.9880   71.2150   67.0290 C   0  0  0  0  0  0  0  0  0  0  0  0
   36.4330   72.5290   66.9230 C   0  0  0  0  0  0  0  0  0  0  0  0
  1  2  1  0  0  0  0
  2  7  2  0  0  0  0
  2  6  1  0  0  0  0
  3  6  1  0  0  0  0
  3  4  1  0  0  0  0
  5  3  2  0  0  0  0
  6 10  2  0  0  0  0
  7  8  1  0  0  0  0
  8  9  2  0  0  0  0
 10  9  1  0  0  0  0
M  END
$$$$
